* BUZ73 SPICE Model
.model BUZ73 NMOS (Level=3 Vto=2.5 Kp=10e-6 Rd=0.1 Rs=0.05 Rds=0.1 Lambda=0.01
+ Cgdmax=100p Cgs=50p Cjo=200p Is=1e-14 N=1.5 Tox=1e-6 Vmax=100)
